/*--------------------------------*- C++ -*----------------------------------*\
| =========                 |                                                 |
| \\      /  F ield         | OpenFOAM: The Open Source CFD Toolbox           |
|  \\    /   O peration     | Version:  v1612+                                |
|   \\  /    A nd           | Web:      www.OpenFOAM.com                      |
|    \\/     M anipulation  |                                                 |
\*---------------------------------------------------------------------------*/
FoamFile
{
    version     2.0;
    format      ascii;
    class       polyBoundaryMesh;
    location    "constant/polyMesh";
    object      boundary;
}
// * * * * * * * * * * * * * * * * * * * * * * * * * * * * * * * * * * * * * //

5
(
    WALL
    {
        type            wall;
        inGroups        1(wall);
        nFaces          1487;
        startFace       36901;
    }
    INLET
    {
        type            patch;
        nFaces          0;
        startFace       38388;
    }
    OUTLET
    {
        type            patch;
        nFaces          0;
        startFace       38388;
    }
    procBoundary23to21
    {
        type            processor;
        inGroups        1(processor);
        nFaces          437;
        startFace       38388;
        matchTolerance  0.0001;
        transform       unknown;
        myProcNo        23;
        neighbProcNo    21;
    }
    procBoundary23to22
    {
        type            processor;
        inGroups        1(processor);
        nFaces          394;
        startFace       38825;
        matchTolerance  0.0001;
        transform       unknown;
        myProcNo        23;
        neighbProcNo    22;
    }
)

// ************************************************************************* //
