/*--------------------------------*- C++ -*----------------------------------*\
| =========                 |                                                 |
| \\      /  F ield         | OpenFOAM: The Open Source CFD Toolbox           |
|  \\    /   O peration     | Version:  v1612+                                |
|   \\  /    A nd           | Web:      www.OpenFOAM.com                      |
|    \\/     M anipulation  |                                                 |
\*---------------------------------------------------------------------------*/
FoamFile
{
    version     2.0;
    format      ascii;
    class       polyBoundaryMesh;
    location    "constant/polyMesh";
    object      boundary;
}
// * * * * * * * * * * * * * * * * * * * * * * * * * * * * * * * * * * * * * //

4
(
    WALL
    {
        type            wall;
        inGroups        1(wall);
        nFaces          1641;
        startFace       41383;
    }
    INLET
    {
        type            patch;
        nFaces          0;
        startFace       43024;
    }
    OUTLET
    {
        type            patch;
        nFaces          435;
        startFace       43024;
    }
    procBoundary15to17
    {
        type            processor;
        inGroups        1(processor);
        nFaces          424;
        startFace       43459;
        matchTolerance  0.0001;
        transform       unknown;
        myProcNo        15;
        neighbProcNo    17;
    }
)

// ************************************************************************* //
