/*--------------------------------*- C++ -*----------------------------------*\
| =========                 |                                                 |
| \\      /  F ield         | OpenFOAM: The Open Source CFD Toolbox           |
|  \\    /   O peration     | Version:  v1612+                                |
|   \\  /    A nd           | Web:      www.OpenFOAM.com                      |
|    \\/     M anipulation  |                                                 |
\*---------------------------------------------------------------------------*/
FoamFile
{
    version     2.0;
    format      ascii;
    class       polyBoundaryMesh;
    location    "constant/polyMesh";
    object      boundary;
}
// * * * * * * * * * * * * * * * * * * * * * * * * * * * * * * * * * * * * * //

5
(
    WALL
    {
        type            wall;
        inGroups        1(wall);
        nFaces          1497;
        startFace       45496;
    }
    INLET
    {
        type            patch;
        nFaces          0;
        startFace       46993;
    }
    OUTLET
    {
        type            patch;
        nFaces          0;
        startFace       46993;
    }
    procBoundary2to3
    {
        type            processor;
        inGroups        1(processor);
        nFaces          472;
        startFace       46993;
        matchTolerance  0.0001;
        transform       unknown;
        myProcNo        2;
        neighbProcNo    3;
    }
    procBoundary2to20
    {
        type            processor;
        inGroups        1(processor);
        nFaces          475;
        startFace       47465;
        matchTolerance  0.0001;
        transform       unknown;
        myProcNo        2;
        neighbProcNo    20;
    }
)

// ************************************************************************* //
