/*--------------------------------*- C++ -*----------------------------------*\
| =========                 |                                                 |
| \\      /  F ield         | OpenFOAM: The Open Source CFD Toolbox           |
|  \\    /   O peration     | Version:  v1612+                                |
|   \\  /    A nd           | Web:      www.OpenFOAM.com                      |
|    \\/     M anipulation  |                                                 |
\*---------------------------------------------------------------------------*/
FoamFile
{
    version     2.0;
    format      ascii;
    class       polyBoundaryMesh;
    location    "constant/polyMesh";
    object      boundary;
}
// * * * * * * * * * * * * * * * * * * * * * * * * * * * * * * * * * * * * * //

5
(
    WALL
    {
        type            wall;
        inGroups        1(wall);
        nFaces          1494;
        startFace       37162;
    }
    INLET
    {
        type            patch;
        nFaces          0;
        startFace       38656;
    }
    OUTLET
    {
        type            patch;
        nFaces          0;
        startFace       38656;
    }
    procBoundary32to28
    {
        type            processor;
        inGroups        1(processor);
        nFaces          396;
        startFace       38656;
        matchTolerance  0.0001;
        transform       unknown;
        myProcNo        32;
        neighbProcNo    28;
    }
    procBoundary32to31
    {
        type            processor;
        inGroups        1(processor);
        nFaces          406;
        startFace       39052;
        matchTolerance  0.0001;
        transform       unknown;
        myProcNo        32;
        neighbProcNo    31;
    }
)

// ************************************************************************* //
