/*--------------------------------*- C++ -*----------------------------------*\
| =========                 |                                                 |
| \\      /  F ield         | OpenFOAM: The Open Source CFD Toolbox           |
|  \\    /   O peration     | Version:  v1612+                                |
|   \\  /    A nd           | Web:      www.OpenFOAM.com                      |
|    \\/     M anipulation  |                                                 |
\*---------------------------------------------------------------------------*/
FoamFile
{
    version     2.0;
    format      ascii;
    class       polyBoundaryMesh;
    location    "constant/polyMesh";
    object      boundary;
}
// * * * * * * * * * * * * * * * * * * * * * * * * * * * * * * * * * * * * * //

5
(
    WALL
    {
        type            wall;
        inGroups        1(wall);
        nFaces          1513;
        startFace       37561;
    }
    INLET
    {
        type            patch;
        nFaces          0;
        startFace       39074;
    }
    OUTLET
    {
        type            patch;
        nFaces          0;
        startFace       39074;
    }
    procBoundary9to10
    {
        type            processor;
        inGroups        1(processor);
        nFaces          398;
        startFace       39074;
        matchTolerance  0.0001;
        transform       unknown;
        myProcNo        9;
        neighbProcNo    10;
    }
    procBoundary9to29
    {
        type            processor;
        inGroups        1(processor);
        nFaces          397;
        startFace       39472;
        matchTolerance  0.0001;
        transform       unknown;
        myProcNo        9;
        neighbProcNo    29;
    }
)

// ************************************************************************* //
