/*--------------------------------*- C++ -*----------------------------------*\
| =========                 |                                                 |
| \\      /  F ield         | OpenFOAM: The Open Source CFD Toolbox           |
|  \\    /   O peration     | Version:  v1612+                                |
|   \\  /    A nd           | Web:      www.OpenFOAM.com                      |
|    \\/     M anipulation  |                                                 |
\*---------------------------------------------------------------------------*/
FoamFile
{
    version     2.0;
    format      ascii;
    class       polyBoundaryMesh;
    location    "constant/polyMesh";
    object      boundary;
}
// * * * * * * * * * * * * * * * * * * * * * * * * * * * * * * * * * * * * * //

5
(
    WALL
    {
        type            wall;
        inGroups        1(wall);
        nFaces          1537;
        startFace       37880;
    }
    INLET
    {
        type            patch;
        nFaces          0;
        startFace       39417;
    }
    OUTLET
    {
        type            patch;
        nFaces          0;
        startFace       39417;
    }
    procBoundary6to5
    {
        type            processor;
        inGroups        1(processor);
        nFaces          409;
        startFace       39417;
        matchTolerance  0.0001;
        transform       unknown;
        myProcNo        6;
        neighbProcNo    5;
    }
    procBoundary6to8
    {
        type            processor;
        inGroups        1(processor);
        nFaces          400;
        startFace       39826;
        matchTolerance  0.0001;
        transform       unknown;
        myProcNo        6;
        neighbProcNo    8;
    }
)

// ************************************************************************* //
