/*--------------------------------*- C++ -*----------------------------------*\
| =========                 |                                                 |
| \\      /  F ield         | OpenFOAM: The Open Source CFD Toolbox           |
|  \\    /   O peration     | Version:  v1612+                                |
|   \\  /    A nd           | Web:      www.OpenFOAM.com                      |
|    \\/     M anipulation  |                                                 |
\*---------------------------------------------------------------------------*/
FoamFile
{
    version     2.0;
    format      ascii;
    class       polyBoundaryMesh;
    location    "constant/polyMesh";
    object      boundary;
}
// * * * * * * * * * * * * * * * * * * * * * * * * * * * * * * * * * * * * * //

5
(
    WALL
    {
        type            wall;
        inGroups        1(wall);
        nFaces          1510;
        startFace       37647;
    }
    INLET
    {
        type            patch;
        nFaces          0;
        startFace       39157;
    }
    OUTLET
    {
        type            patch;
        nFaces          0;
        startFace       39157;
    }
    procBoundary19to18
    {
        type            processor;
        inGroups        1(processor);
        nFaces          412;
        startFace       39157;
        matchTolerance  0.0001;
        transform       unknown;
        myProcNo        19;
        neighbProcNo    18;
    }
    procBoundary19to26
    {
        type            processor;
        inGroups        1(processor);
        nFaces          404;
        startFace       39569;
        matchTolerance  0.0001;
        transform       unknown;
        myProcNo        19;
        neighbProcNo    26;
    }
)

// ************************************************************************* //
