/*--------------------------------*- C++ -*----------------------------------*\
| =========                 |                                                 |
| \\      /  F ield         | OpenFOAM: The Open Source CFD Toolbox           |
|  \\    /   O peration     | Version:  v1612+                                |
|   \\  /    A nd           | Web:      www.OpenFOAM.com                      |
|    \\/     M anipulation  |                                                 |
\*---------------------------------------------------------------------------*/
FoamFile
{
    version     2.0;
    format      ascii;
    class       polyBoundaryMesh;
    location    "constant/polyMesh";
    object      boundary;
}
// * * * * * * * * * * * * * * * * * * * * * * * * * * * * * * * * * * * * * //

5
(
    WALL
    {
        type            wall;
        inGroups        1(wall);
        nFaces          1697;
        startFace       42001;
    }
    INLET
    {
        type            patch;
        nFaces          0;
        startFace       43698;
    }
    OUTLET
    {
        type            patch;
        nFaces          0;
        startFace       43698;
    }
    procBoundary7to8
    {
        type            processor;
        inGroups        1(processor);
        nFaces          402;
        startFace       43698;
        matchTolerance  0.0001;
        transform       unknown;
        myProcNo        7;
        neighbProcNo    8;
    }
    procBoundary7to23
    {
        type            processor;
        inGroups        1(processor);
        nFaces          429;
        startFace       44100;
        matchTolerance  0.0001;
        transform       unknown;
        myProcNo        7;
        neighbProcNo    23;
    }
)

// ************************************************************************* //
