/*--------------------------------*- C++ -*----------------------------------*\
| =========                 |                                                 |
| \\      /  F ield         | OpenFOAM: The Open Source CFD Toolbox           |
|  \\    /   O peration     | Version:  v1612+                                |
|   \\  /    A nd           | Web:      www.OpenFOAM.com                      |
|    \\/     M anipulation  |                                                 |
\*---------------------------------------------------------------------------*/
FoamFile
{
    version     2.0;
    format      ascii;
    class       polyBoundaryMesh;
    location    "constant/polyMesh";
    object      boundary;
}
// * * * * * * * * * * * * * * * * * * * * * * * * * * * * * * * * * * * * * //

5
(
    WALL
    {
        type            wall;
        inGroups        1(wall);
        nFaces          1513;
        startFace       37175;
    }
    INLET
    {
        type            patch;
        nFaces          0;
        startFace       38688;
    }
    OUTLET
    {
        type            patch;
        nFaces          0;
        startFace       38688;
    }
    procBoundary27to19
    {
        type            processor;
        inGroups        1(processor);
        nFaces          415;
        startFace       38688;
        matchTolerance  0.0001;
        transform       unknown;
        myProcNo        27;
        neighbProcNo    19;
    }
    procBoundary27to28
    {
        type            processor;
        inGroups        1(processor);
        nFaces          414;
        startFace       39103;
        matchTolerance  0.0001;
        transform       unknown;
        myProcNo        27;
        neighbProcNo    28;
    }
)

// ************************************************************************* //
