/*--------------------------------*- C++ -*----------------------------------*\
| =========                 |                                                 |
| \\      /  F ield         | OpenFOAM: The Open Source CFD Toolbox           |
|  \\    /   O peration     | Version:  v1612+                                |
|   \\  /    A nd           | Web:      www.OpenFOAM.com                      |
|    \\/     M anipulation  |                                                 |
\*---------------------------------------------------------------------------*/
FoamFile
{
    version     2.0;
    format      ascii;
    class       polyBoundaryMesh;
    location    "constant/polyMesh";
    object      boundary;
}
// * * * * * * * * * * * * * * * * * * * * * * * * * * * * * * * * * * * * * //

5
(
    WALL
    {
        type            wall;
        inGroups        1(wall);
        nFaces          1533;
        startFace       37527;
    }
    INLET
    {
        type            patch;
        nFaces          0;
        startFace       39060;
    }
    OUTLET
    {
        type            patch;
        nFaces          0;
        startFace       39060;
    }
    procBoundary15to1
    {
        type            processor;
        inGroups        1(processor);
        nFaces          426;
        startFace       39060;
        matchTolerance  0.0001;
        transform       unknown;
        myProcNo        15;
        neighbProcNo    1;
    }
    procBoundary15to16
    {
        type            processor;
        inGroups        1(processor);
        nFaces          418;
        startFace       39486;
        matchTolerance  0.0001;
        transform       unknown;
        myProcNo        15;
        neighbProcNo    16;
    }
)

// ************************************************************************* //
