/*--------------------------------*- C++ -*----------------------------------*\
| =========                 |                                                 |
| \\      /  F ield         | OpenFOAM: The Open Source CFD Toolbox           |
|  \\    /   O peration     | Version:  v1612+                                |
|   \\  /    A nd           | Web:      www.OpenFOAM.com                      |
|    \\/     M anipulation  |                                                 |
\*---------------------------------------------------------------------------*/
FoamFile
{
    version     2.0;
    format      ascii;
    class       polyBoundaryMesh;
    location    "constant/polyMesh";
    object      boundary;
}
// * * * * * * * * * * * * * * * * * * * * * * * * * * * * * * * * * * * * * //

5
(
    WALL
    {
        type            wall;
        inGroups        1(wall);
        nFaces          1665;
        startFace       41626;
    }
    INLET
    {
        type            patch;
        nFaces          0;
        startFace       43291;
    }
    OUTLET
    {
        type            patch;
        nFaces          0;
        startFace       43291;
    }
    procBoundary22to23
    {
        type            processor;
        inGroups        1(processor);
        nFaces          433;
        startFace       43291;
        matchTolerance  0.0001;
        transform       unknown;
        myProcNo        22;
        neighbProcNo    23;
    }
    procBoundary22to26
    {
        type            processor;
        inGroups        1(processor);
        nFaces          404;
        startFace       43724;
        matchTolerance  0.0001;
        transform       unknown;
        myProcNo        22;
        neighbProcNo    26;
    }
)

// ************************************************************************* //
