/*--------------------------------*- C++ -*----------------------------------*\
| =========                 |                                                 |
| \\      /  F ield         | OpenFOAM: The Open Source CFD Toolbox           |
|  \\    /   O peration     | Version:  v1612+                                |
|   \\  /    A nd           | Web:      www.OpenFOAM.com                      |
|    \\/     M anipulation  |                                                 |
\*---------------------------------------------------------------------------*/
FoamFile
{
    version     2.0;
    format      ascii;
    class       polyBoundaryMesh;
    location    "constant/polyMesh";
    object      boundary;
}
// * * * * * * * * * * * * * * * * * * * * * * * * * * * * * * * * * * * * * //

3
(
    WALL
    {
        type            wall;
        inGroups        1(wall);
        nFaces          60385;
        startFace       1512861;
    }
    INLET
    {
        type            patch;
        nFaces          436;
        startFace       1573246;
    }
    OUTLET
    {
        type            patch;
        nFaces          435;
        startFace       1573682;
    }
)

// ************************************************************************* //
