/*--------------------------------*- C++ -*----------------------------------*\
| =========                 |                                                 |
| \\      /  F ield         | OpenFOAM: The Open Source CFD Toolbox           |
|  \\    /   O peration     | Version:  v1612+                                |
|   \\  /    A nd           | Web:      www.OpenFOAM.com                      |
|    \\/     M anipulation  |                                                 |
\*---------------------------------------------------------------------------*/
FoamFile
{
    version     2.0;
    format      ascii;
    class       polyBoundaryMesh;
    location    "constant/polyMesh";
    object      boundary;
}
// * * * * * * * * * * * * * * * * * * * * * * * * * * * * * * * * * * * * * //

5
(
    WALL
    {
        type            wall;
        inGroups        1(wall);
        nFaces          1498;
        startFace       45887;
    }
    INLET
    {
        type            patch;
        nFaces          0;
        startFace       47385;
    }
    OUTLET
    {
        type            patch;
        nFaces          0;
        startFace       47385;
    }
    procBoundary15to13
    {
        type            processor;
        inGroups        1(processor);
        nFaces          508;
        startFace       47385;
        matchTolerance  0.0001;
        transform       unknown;
        myProcNo        15;
        neighbProcNo    13;
    }
    procBoundary15to16
    {
        type            processor;
        inGroups        1(processor);
        nFaces          482;
        startFace       47893;
        matchTolerance  0.0001;
        transform       unknown;
        myProcNo        15;
        neighbProcNo    16;
    }
)

// ************************************************************************* //
