/*--------------------------------*- C++ -*----------------------------------*\
| =========                 |                                                 |
| \\      /  F ield         | OpenFOAM: The Open Source CFD Toolbox           |
|  \\    /   O peration     | Version:  v1612+                                |
|   \\  /    A nd           | Web:      www.OpenFOAM.com                      |
|    \\/     M anipulation  |                                                 |
\*---------------------------------------------------------------------------*/
FoamFile
{
    version     2.0;
    format      ascii;
    class       polyBoundaryMesh;
    location    "constant/polyMesh";
    object      boundary;
}
// * * * * * * * * * * * * * * * * * * * * * * * * * * * * * * * * * * * * * //

5
(
    WALL
    {
        type            wall;
        inGroups        1(wall);
        nFaces          1673;
        startFace       41494;
    }
    INLET
    {
        type            patch;
        nFaces          0;
        startFace       43167;
    }
    OUTLET
    {
        type            patch;
        nFaces          0;
        startFace       43167;
    }
    procBoundary29to30
    {
        type            processor;
        inGroups        1(processor);
        nFaces          431;
        startFace       43167;
        matchTolerance  0.0001;
        transform       unknown;
        myProcNo        29;
        neighbProcNo    30;
    }
    procBoundary29to34
    {
        type            processor;
        inGroups        1(processor);
        nFaces          398;
        startFace       43598;
        matchTolerance  0.0001;
        transform       unknown;
        myProcNo        29;
        neighbProcNo    34;
    }
)

// ************************************************************************* //
