/*--------------------------------*- C++ -*----------------------------------*\
| =========                 |                                                 |
| \\      /  F ield         | OpenFOAM: The Open Source CFD Toolbox           |
|  \\    /   O peration     | Version:  v1612+                                |
|   \\  /    A nd           | Web:      www.OpenFOAM.com                      |
|    \\/     M anipulation  |                                                 |
\*---------------------------------------------------------------------------*/
FoamFile
{
    version     2.0;
    format      ascii;
    class       polyBoundaryMesh;
    location    "constant/polyMesh";
    object      boundary;
}
// * * * * * * * * * * * * * * * * * * * * * * * * * * * * * * * * * * * * * //

5
(
    WALL
    {
        type            wall;
        inGroups        1(wall);
        nFaces          1508;
        startFace       37485;
    }
    INLET
    {
        type            patch;
        nFaces          0;
        startFace       38993;
    }
    OUTLET
    {
        type            patch;
        nFaces          0;
        startFace       38993;
    }
    procBoundary1to0
    {
        type            processor;
        inGroups        1(processor);
        nFaces          402;
        startFace       38993;
        matchTolerance  0.0001;
        transform       unknown;
        myProcNo        1;
        neighbProcNo    0;
    }
    procBoundary1to15
    {
        type            processor;
        inGroups        1(processor);
        nFaces          426;
        startFace       39395;
        matchTolerance  0.0001;
        transform       unknown;
        myProcNo        1;
        neighbProcNo    15;
    }
)

// ************************************************************************* //
