/*--------------------------------*- C++ -*----------------------------------*\
| =========                 |                                                 |
| \\      /  F ield         | OpenFOAM: The Open Source CFD Toolbox           |
|  \\    /   O peration     | Version:  v1612+                                |
|   \\  /    A nd           | Web:      www.OpenFOAM.com                      |
|    \\/     M anipulation  |                                                 |
\*---------------------------------------------------------------------------*/
FoamFile
{
    version     2.0;
    format      ascii;
    class       polyBoundaryMesh;
    location    "constant/polyMesh";
    object      boundary;
}
// * * * * * * * * * * * * * * * * * * * * * * * * * * * * * * * * * * * * * //

5
(
    WALL
    {
        type            wall;
        inGroups        1(wall);
        nFaces          1488;
        startFace       45468;
    }
    INLET
    {
        type            patch;
        nFaces          0;
        startFace       46956;
    }
    OUTLET
    {
        type            patch;
        nFaces          0;
        startFace       46956;
    }
    procBoundary34to28
    {
        type            processor;
        inGroups        1(processor);
        nFaces          449;
        startFace       46956;
        matchTolerance  0.0001;
        transform       unknown;
        myProcNo        34;
        neighbProcNo    28;
    }
    procBoundary34to35
    {
        type            processor;
        inGroups        1(processor);
        nFaces          487;
        startFace       47405;
        matchTolerance  0.0001;
        transform       unknown;
        myProcNo        34;
        neighbProcNo    35;
    }
)

// ************************************************************************* //
