/*--------------------------------*- C++ -*----------------------------------*\
| =========                 |                                                 |
| \\      /  F ield         | OpenFOAM: The Open Source CFD Toolbox           |
|  \\    /   O peration     | Version:  v1612+                                |
|   \\  /    A nd           | Web:      www.OpenFOAM.com                      |
|    \\/     M anipulation  |                                                 |
\*---------------------------------------------------------------------------*/
FoamFile
{
    version     2.0;
    format      ascii;
    class       polyBoundaryMesh;
    location    "constant/polyMesh";
    object      boundary;
}
// * * * * * * * * * * * * * * * * * * * * * * * * * * * * * * * * * * * * * //

5
(
    WALL
    {
        type            wall;
        inGroups        1(wall);
        nFaces          1684;
        startFace       41464;
    }
    INLET
    {
        type            patch;
        nFaces          0;
        startFace       43148;
    }
    OUTLET
    {
        type            patch;
        nFaces          0;
        startFace       43148;
    }
    procBoundary24to19
    {
        type            processor;
        inGroups        1(processor);
        nFaces          409;
        startFace       43148;
        matchTolerance  0.0001;
        transform       unknown;
        myProcNo        24;
        neighbProcNo    19;
    }
    procBoundary24to25
    {
        type            processor;
        inGroups        1(processor);
        nFaces          419;
        startFace       43557;
        matchTolerance  0.0001;
        transform       unknown;
        myProcNo        24;
        neighbProcNo    25;
    }
)

// ************************************************************************* //
