/*--------------------------------*- C++ -*----------------------------------*\
| =========                 |                                                 |
| \\      /  F ield         | OpenFOAM: The Open Source CFD Toolbox           |
|  \\    /   O peration     | Version:  v1612+                                |
|   \\  /    A nd           | Web:      www.OpenFOAM.com                      |
|    \\/     M anipulation  |                                                 |
\*---------------------------------------------------------------------------*/
FoamFile
{
    version     2.0;
    format      ascii;
    class       polyBoundaryMesh;
    location    "constant/polyMesh";
    object      boundary;
}
// * * * * * * * * * * * * * * * * * * * * * * * * * * * * * * * * * * * * * //

5
(
    WALL
    {
        type            wall;
        inGroups        1(wall);
        nFaces          1549;
        startFace       46003;
    }
    INLET
    {
        type            patch;
        nFaces          0;
        startFace       47552;
    }
    OUTLET
    {
        type            patch;
        nFaces          0;
        startFace       47552;
    }
    procBoundary6to1
    {
        type            processor;
        inGroups        1(processor);
        nFaces          449;
        startFace       47552;
        matchTolerance  0.0001;
        transform       unknown;
        myProcNo        6;
        neighbProcNo    1;
    }
    procBoundary6to8
    {
        type            processor;
        inGroups        1(processor);
        nFaces          478;
        startFace       48001;
        matchTolerance  0.0001;
        transform       unknown;
        myProcNo        6;
        neighbProcNo    8;
    }
)

// ************************************************************************* //
