/*--------------------------------*- C++ -*----------------------------------*\
| =========                 |                                                 |
| \\      /  F ield         | OpenFOAM: The Open Source CFD Toolbox           |
|  \\    /   O peration     | Version:  v1612+                                |
|   \\  /    A nd           | Web:      www.OpenFOAM.com                      |
|    \\/     M anipulation  |                                                 |
\*---------------------------------------------------------------------------*/
FoamFile
{
    version     2.0;
    format      ascii;
    class       polyBoundaryMesh;
    location    "constant/polyMesh";
    object      boundary;
}
// * * * * * * * * * * * * * * * * * * * * * * * * * * * * * * * * * * * * * //

5
(
    WALL
    {
        type            wall;
        inGroups        1(wall);
        nFaces          1547;
        startFace       37564;
    }
    INLET
    {
        type            patch;
        nFaces          0;
        startFace       39111;
    }
    OUTLET
    {
        type            patch;
        nFaces          0;
        startFace       39111;
    }
    procBoundary13to9
    {
        type            processor;
        inGroups        1(processor);
        nFaces          422;
        startFace       39111;
        matchTolerance  0.0001;
        transform       unknown;
        myProcNo        13;
        neighbProcNo    9;
    }
    procBoundary13to14
    {
        type            processor;
        inGroups        1(processor);
        nFaces          409;
        startFace       39533;
        matchTolerance  0.0001;
        transform       unknown;
        myProcNo        13;
        neighbProcNo    14;
    }
)

// ************************************************************************* //
