/*--------------------------------*- C++ -*----------------------------------*\
| =========                 |                                                 |
| \\      /  F ield         | OpenFOAM: The Open Source CFD Toolbox           |
|  \\    /   O peration     | Version:  v1612+                                |
|   \\  /    A nd           | Web:      www.OpenFOAM.com                      |
|    \\/     M anipulation  |                                                 |
\*---------------------------------------------------------------------------*/
FoamFile
{
    version     2.0;
    format      ascii;
    class       polyBoundaryMesh;
    location    "constant/polyMesh";
    object      boundary;
}
// * * * * * * * * * * * * * * * * * * * * * * * * * * * * * * * * * * * * * //

5
(
    WALL
    {
        type            wall;
        inGroups        1(wall);
        nFaces          1491;
        startFace       37194;
    }
    INLET
    {
        type            patch;
        nFaces          0;
        startFace       38685;
    }
    OUTLET
    {
        type            patch;
        nFaces          0;
        startFace       38685;
    }
    procBoundary24to22
    {
        type            processor;
        inGroups        1(processor);
        nFaces          419;
        startFace       38685;
        matchTolerance  0.0001;
        transform       unknown;
        myProcNo        24;
        neighbProcNo    22;
    }
    procBoundary24to25
    {
        type            processor;
        inGroups        1(processor);
        nFaces          408;
        startFace       39104;
        matchTolerance  0.0001;
        transform       unknown;
        myProcNo        24;
        neighbProcNo    25;
    }
)

// ************************************************************************* //
