/*--------------------------------*- C++ -*----------------------------------*\
| =========                 |                                                 |
| \\      /  F ield         | OpenFOAM: The Open Source CFD Toolbox           |
|  \\    /   O peration     | Version:  v1612+                                |
|   \\  /    A nd           | Web:      www.OpenFOAM.com                      |
|    \\/     M anipulation  |                                                 |
\*---------------------------------------------------------------------------*/
FoamFile
{
    version     2.0;
    format      ascii;
    class       polyBoundaryMesh;
    location    "constant/polyMesh";
    object      boundary;
}
// * * * * * * * * * * * * * * * * * * * * * * * * * * * * * * * * * * * * * //

5
(
    WALL
    {
        type            wall;
        inGroups        1(wall);
        nFaces          1477;
        startFace       45677;
    }
    INLET
    {
        type            patch;
        nFaces          0;
        startFace       47154;
    }
    OUTLET
    {
        type            patch;
        nFaces          0;
        startFace       47154;
    }
    procBoundary27to28
    {
        type            processor;
        inGroups        1(processor);
        nFaces          482;
        startFace       47154;
        matchTolerance  0.0001;
        transform       unknown;
        myProcNo        27;
        neighbProcNo    28;
    }
    procBoundary27to30
    {
        type            processor;
        inGroups        1(processor);
        nFaces          483;
        startFace       47636;
        matchTolerance  0.0001;
        transform       unknown;
        myProcNo        27;
        neighbProcNo    30;
    }
)

// ************************************************************************* //
