/*--------------------------------*- C++ -*----------------------------------*\
| =========                 |                                                 |
| \\      /  F ield         | OpenFOAM: The Open Source CFD Toolbox           |
|  \\    /   O peration     | Version:  v1612+                                |
|   \\  /    A nd           | Web:      www.OpenFOAM.com                      |
|    \\/     M anipulation  |                                                 |
\*---------------------------------------------------------------------------*/
FoamFile
{
    version     2.0;
    format      ascii;
    class       polyBoundaryMesh;
    location    "constant/polyMesh";
    object      boundary;
}
// * * * * * * * * * * * * * * * * * * * * * * * * * * * * * * * * * * * * * //

5
(
    WALL
    {
        type            wall;
        inGroups        1(wall);
        nFaces          1481;
        startFace       36749;
    }
    INLET
    {
        type            patch;
        nFaces          0;
        startFace       38230;
    }
    OUTLET
    {
        type            patch;
        nFaces          0;
        startFace       38230;
    }
    procBoundary22to23
    {
        type            processor;
        inGroups        1(processor);
        nFaces          394;
        startFace       38230;
        matchTolerance  0.0001;
        transform       unknown;
        myProcNo        22;
        neighbProcNo    23;
    }
    procBoundary22to24
    {
        type            processor;
        inGroups        1(processor);
        nFaces          419;
        startFace       38624;
        matchTolerance  0.0001;
        transform       unknown;
        myProcNo        22;
        neighbProcNo    24;
    }
)

// ************************************************************************* //
