/*--------------------------------*- C++ -*----------------------------------*\
| =========                 |                                                 |
| \\      /  F ield         | OpenFOAM: The Open Source CFD Toolbox           |
|  \\    /   O peration     | Version:  v1612+                                |
|   \\  /    A nd           | Web:      www.OpenFOAM.com                      |
|    \\/     M anipulation  |                                                 |
\*---------------------------------------------------------------------------*/
FoamFile
{
    version     2.0;
    format      ascii;
    class       polyBoundaryMesh;
    location    "constant/polyMesh";
    object      boundary;
}
// * * * * * * * * * * * * * * * * * * * * * * * * * * * * * * * * * * * * * //

5
(
    WALL
    {
        type            wall;
        inGroups        1(wall);
        nFaces          1511;
        startFace       37439;
    }
    INLET
    {
        type            patch;
        nFaces          0;
        startFace       38950;
    }
    OUTLET
    {
        type            patch;
        nFaces          0;
        startFace       38950;
    }
    procBoundary25to24
    {
        type            processor;
        inGroups        1(processor);
        nFaces          400;
        startFace       38950;
        matchTolerance  0.0001;
        transform       unknown;
        myProcNo        25;
        neighbProcNo    24;
    }
    procBoundary25to26
    {
        type            processor;
        inGroups        1(processor);
        nFaces          409;
        startFace       39350;
        matchTolerance  0.0001;
        transform       unknown;
        myProcNo        25;
        neighbProcNo    26;
    }
)

// ************************************************************************* //
