/*--------------------------------*- C++ -*----------------------------------*\
| =========                 |                                                 |
| \\      /  F ield         | OpenFOAM: The Open Source CFD Toolbox           |
|  \\    /   O peration     | Version:  v1612+                                |
|   \\  /    A nd           | Web:      www.OpenFOAM.com                      |
|    \\/     M anipulation  |                                                 |
\*---------------------------------------------------------------------------*/
FoamFile
{
    version     2.0;
    format      ascii;
    class       polyBoundaryMesh;
    location    "constant/polyMesh";
    object      boundary;
}
// * * * * * * * * * * * * * * * * * * * * * * * * * * * * * * * * * * * * * //

5
(
    WALL
    {
        type            wall;
        inGroups        1(wall);
        nFaces          1682;
        startFace       41951;
    }
    INLET
    {
        type            patch;
        nFaces          0;
        startFace       43633;
    }
    OUTLET
    {
        type            patch;
        nFaces          0;
        startFace       43633;
    }
    procBoundary33to31
    {
        type            processor;
        inGroups        1(processor);
        nFaces          394;
        startFace       43633;
        matchTolerance  0.0001;
        transform       unknown;
        myProcNo        33;
        neighbProcNo    31;
    }
    procBoundary33to35
    {
        type            processor;
        inGroups        1(processor);
        nFaces          390;
        startFace       44027;
        matchTolerance  0.0001;
        transform       unknown;
        myProcNo        33;
        neighbProcNo    35;
    }
)

// ************************************************************************* //
