/*--------------------------------*- C++ -*----------------------------------*\
| =========                 |                                                 |
| \\      /  F ield         | OpenFOAM: The Open Source CFD Toolbox           |
|  \\    /   O peration     | Version:  v1612+                                |
|   \\  /    A nd           | Web:      www.OpenFOAM.com                      |
|    \\/     M anipulation  |                                                 |
\*---------------------------------------------------------------------------*/
FoamFile
{
    version     2.0;
    format      ascii;
    class       polyBoundaryMesh;
    location    "constant/polyMesh";
    object      boundary;
}
// * * * * * * * * * * * * * * * * * * * * * * * * * * * * * * * * * * * * * //

7
(
    WALL
    {
        type            wall;
        inGroups        1(wall);
        nFaces          1510;
        startFace       45551;
    }
    INLET
    {
        type            patch;
        nFaces          0;
        startFace       47061;
    }
    OUTLET
    {
        type            patch;
        nFaces          0;
        startFace       47061;
    }
    procBoundary20to2
    {
        type            processor;
        inGroups        1(processor);
        nFaces          475;
        startFace       47061;
        matchTolerance  0.0001;
        transform       unknown;
        myProcNo        20;
        neighbProcNo    2;
    }
    procBoundary20to18
    {
        type            processor;
        inGroups        1(processor);
        nFaces          257;
        startFace       47536;
        matchTolerance  0.0001;
        transform       unknown;
        myProcNo        20;
        neighbProcNo    18;
    }
    procBoundary20to21
    {
        type            processor;
        inGroups        1(processor);
        nFaces          511;
        startFace       47793;
        matchTolerance  0.0001;
        transform       unknown;
        myProcNo        20;
        neighbProcNo    21;
    }
    procBoundary20to23
    {
        type            processor;
        inGroups        1(processor);
        nFaces          237;
        startFace       48304;
        matchTolerance  0.0001;
        transform       unknown;
        myProcNo        20;
        neighbProcNo    23;
    }
)

// ************************************************************************* //
