/*--------------------------------*- C++ -*----------------------------------*\
| =========                 |                                                 |
| \\      /  F ield         | OpenFOAM: The Open Source CFD Toolbox           |
|  \\    /   O peration     | Version:  v1612+                                |
|   \\  /    A nd           | Web:      www.OpenFOAM.com                      |
|    \\/     M anipulation  |                                                 |
\*---------------------------------------------------------------------------*/
FoamFile
{
    version     2.0;
    format      ascii;
    class       polyBoundaryMesh;
    location    "constant/polyMesh";
    object      boundary;
}
// * * * * * * * * * * * * * * * * * * * * * * * * * * * * * * * * * * * * * //

5
(
    WALL
    {
        type            wall;
        inGroups        1(wall);
        nFaces          1705;
        startFace       41936;
    }
    INLET
    {
        type            patch;
        nFaces          0;
        startFace       43641;
    }
    OUTLET
    {
        type            patch;
        nFaces          0;
        startFace       43641;
    }
    procBoundary31to32
    {
        type            processor;
        inGroups        1(processor);
        nFaces          407;
        startFace       43641;
        matchTolerance  0.0001;
        transform       unknown;
        myProcNo        31;
        neighbProcNo    32;
    }
    procBoundary31to33
    {
        type            processor;
        inGroups        1(processor);
        nFaces          394;
        startFace       44048;
        matchTolerance  0.0001;
        transform       unknown;
        myProcNo        31;
        neighbProcNo    33;
    }
)

// ************************************************************************* //
