/*--------------------------------*- C++ -*----------------------------------*\
| =========                 |                                                 |
| \\      /  F ield         | OpenFOAM: The Open Source CFD Toolbox           |
|  \\    /   O peration     | Version:  v1612+                                |
|   \\  /    A nd           | Web:      www.OpenFOAM.com                      |
|    \\/     M anipulation  |                                                 |
\*---------------------------------------------------------------------------*/
FoamFile
{
    version     2.0;
    format      ascii;
    class       polyBoundaryMesh;
    location    "constant/polyMesh";
    object      boundary;
}
// * * * * * * * * * * * * * * * * * * * * * * * * * * * * * * * * * * * * * //

5
(
    WALL
    {
        type            wall;
        inGroups        1(wall);
        nFaces          1478;
        startFace       36965;
    }
    INLET
    {
        type            patch;
        nFaces          0;
        startFace       38443;
    }
    OUTLET
    {
        type            patch;
        nFaces          0;
        startFace       38443;
    }
    procBoundary20to18
    {
        type            processor;
        inGroups        1(processor);
        nFaces          387;
        startFace       38443;
        matchTolerance  0.0001;
        transform       unknown;
        myProcNo        20;
        neighbProcNo    18;
    }
    procBoundary20to21
    {
        type            processor;
        inGroups        1(processor);
        nFaces          409;
        startFace       38830;
        matchTolerance  0.0001;
        transform       unknown;
        myProcNo        20;
        neighbProcNo    21;
    }
)

// ************************************************************************* //
