/*--------------------------------*- C++ -*----------------------------------*\
| =========                 |                                                 |
| \\      /  F ield         | OpenFOAM: The Open Source CFD Toolbox           |
|  \\    /   O peration     | Version:  v1612+                                |
|   \\  /    A nd           | Web:      www.OpenFOAM.com                      |
|    \\/     M anipulation  |                                                 |
\*---------------------------------------------------------------------------*/
FoamFile
{
    version     2.0;
    format      ascii;
    class       polyBoundaryMesh;
    location    "constant/polyMesh";
    object      boundary;
}
// * * * * * * * * * * * * * * * * * * * * * * * * * * * * * * * * * * * * * //

5
(
    WALL
    {
        type            wall;
        inGroups        1(wall);
        nFaces          1514;
        startFace       37231;
    }
    INLET
    {
        type            patch;
        nFaces          0;
        startFace       38745;
    }
    OUTLET
    {
        type            patch;
        nFaces          0;
        startFace       38745;
    }
    procBoundary14to13
    {
        type            processor;
        inGroups        1(processor);
        nFaces          409;
        startFace       38745;
        matchTolerance  0.0001;
        transform       unknown;
        myProcNo        14;
        neighbProcNo    13;
    }
    procBoundary14to17
    {
        type            processor;
        inGroups        1(processor);
        nFaces          411;
        startFace       39154;
        matchTolerance  0.0001;
        transform       unknown;
        myProcNo        14;
        neighbProcNo    17;
    }
)

// ************************************************************************* //
