/*--------------------------------*- C++ -*----------------------------------*\
| =========                 |                                                 |
| \\      /  F ield         | OpenFOAM: The Open Source CFD Toolbox           |
|  \\    /   O peration     | Version:  v1612+                                |
|   \\  /    A nd           | Web:      www.OpenFOAM.com                      |
|    \\/     M anipulation  |                                                 |
\*---------------------------------------------------------------------------*/
FoamFile
{
    version     2.0;
    format      ascii;
    class       polyBoundaryMesh;
    location    "constant/polyMesh";
    object      boundary;
}
// * * * * * * * * * * * * * * * * * * * * * * * * * * * * * * * * * * * * * //

5
(
    WALL
    {
        type            wall;
        inGroups        1(wall);
        nFaces          1507;
        startFace       37284;
    }
    INLET
    {
        type            patch;
        nFaces          0;
        startFace       38791;
    }
    OUTLET
    {
        type            patch;
        nFaces          0;
        startFace       38791;
    }
    procBoundary28to27
    {
        type            processor;
        inGroups        1(processor);
        nFaces          414;
        startFace       38791;
        matchTolerance  0.0001;
        transform       unknown;
        myProcNo        28;
        neighbProcNo    27;
    }
    procBoundary28to29
    {
        type            processor;
        inGroups        1(processor);
        nFaces          425;
        startFace       39205;
        matchTolerance  0.0001;
        transform       unknown;
        myProcNo        28;
        neighbProcNo    29;
    }
)

// ************************************************************************* //
