/*--------------------------------*- C++ -*----------------------------------*\
| =========                 |                                                 |
| \\      /  F ield         | OpenFOAM: The Open Source CFD Toolbox           |
|  \\    /   O peration     | Version:  v1612+                                |
|   \\  /    A nd           | Web:      www.OpenFOAM.com                      |
|    \\/     M anipulation  |                                                 |
\*---------------------------------------------------------------------------*/
FoamFile
{
    version     2.0;
    format      ascii;
    class       polyBoundaryMesh;
    location    "constant/polyMesh";
    object      boundary;
}
// * * * * * * * * * * * * * * * * * * * * * * * * * * * * * * * * * * * * * //

5
(
    WALL
    {
        type            wall;
        inGroups        1(wall);
        nFaces          1488;
        startFace       45443;
    }
    INLET
    {
        type            patch;
        nFaces          0;
        startFace       46931;
    }
    OUTLET
    {
        type            patch;
        nFaces          0;
        startFace       46931;
    }
    procBoundary21to20
    {
        type            processor;
        inGroups        1(processor);
        nFaces          511;
        startFace       46931;
        matchTolerance  0.0001;
        transform       unknown;
        myProcNo        21;
        neighbProcNo    20;
    }
    procBoundary21to29
    {
        type            processor;
        inGroups        1(processor);
        nFaces          475;
        startFace       47442;
        matchTolerance  0.0001;
        transform       unknown;
        myProcNo        21;
        neighbProcNo    29;
    }
)

// ************************************************************************* //
