/*--------------------------------*- C++ -*----------------------------------*\
| =========                 |                                                 |
| \\      /  F ield         | OpenFOAM: The Open Source CFD Toolbox           |
|  \\    /   O peration     | Version:  v1612+                                |
|   \\  /    A nd           | Web:      www.OpenFOAM.com                      |
|    \\/     M anipulation  |                                                 |
\*---------------------------------------------------------------------------*/
FoamFile
{
    version     2.0;
    format      ascii;
    class       polyBoundaryMesh;
    location    "constant/polyMesh";
    object      boundary;
}
// * * * * * * * * * * * * * * * * * * * * * * * * * * * * * * * * * * * * * //

5
(
    WALL
    {
        type            wall;
        inGroups        1(wall);
        nFaces          1497;
        startFace       37087;
    }
    INLET
    {
        type            patch;
        nFaces          0;
        startFace       38584;
    }
    OUTLET
    {
        type            patch;
        nFaces          0;
        startFace       38584;
    }
    procBoundary32to30
    {
        type            processor;
        inGroups        1(processor);
        nFaces          442;
        startFace       38584;
        matchTolerance  0.0001;
        transform       unknown;
        myProcNo        32;
        neighbProcNo    30;
    }
    procBoundary32to31
    {
        type            processor;
        inGroups        1(processor);
        nFaces          409;
        startFace       39026;
        matchTolerance  0.0001;
        transform       unknown;
        myProcNo        32;
        neighbProcNo    31;
    }
)

// ************************************************************************* //
