/*--------------------------------*- C++ -*----------------------------------*\
| =========                 |                                                 |
| \\      /  F ield         | OpenFOAM: The Open Source CFD Toolbox           |
|  \\    /   O peration     | Version:  v1612+                                |
|   \\  /    A nd           | Web:      www.OpenFOAM.com                      |
|    \\/     M anipulation  |                                                 |
\*---------------------------------------------------------------------------*/
FoamFile
{
    version     2.0;
    format      ascii;
    class       polyBoundaryMesh;
    location    "constant/polyMesh";
    object      boundary;
}
// * * * * * * * * * * * * * * * * * * * * * * * * * * * * * * * * * * * * * //

5
(
    WALL
    {
        type            wall;
        inGroups        1(wall);
        nFaces          1702;
        startFace       41887;
    }
    INLET
    {
        type            patch;
        nFaces          0;
        startFace       43589;
    }
    OUTLET
    {
        type            patch;
        nFaces          0;
        startFace       43589;
    }
    procBoundary21to20
    {
        type            processor;
        inGroups        1(processor);
        nFaces          430;
        startFace       43589;
        matchTolerance  0.0001;
        transform       unknown;
        myProcNo        21;
        neighbProcNo    20;
    }
    procBoundary21to32
    {
        type            processor;
        inGroups        1(processor);
        nFaces          418;
        startFace       44019;
        matchTolerance  0.0001;
        transform       unknown;
        myProcNo        21;
        neighbProcNo    32;
    }
)

// ************************************************************************* //
