/*--------------------------------*- C++ -*----------------------------------*\
| =========                 |                                                 |
| \\      /  F ield         | OpenFOAM: The Open Source CFD Toolbox           |
|  \\    /   O peration     | Version:  v1612+                                |
|   \\  /    A nd           | Web:      www.OpenFOAM.com                      |
|    \\/     M anipulation  |                                                 |
\*---------------------------------------------------------------------------*/
FoamFile
{
    version     2.0;
    format      ascii;
    class       polyBoundaryMesh;
    location    "constant/polyMesh";
    object      boundary;
}
// * * * * * * * * * * * * * * * * * * * * * * * * * * * * * * * * * * * * * //

5
(
    WALL
    {
        type            wall;
        inGroups        1(wall);
        nFaces          1532;
        startFace       37828;
    }
    INLET
    {
        type            patch;
        nFaces          0;
        startFace       39360;
    }
    OUTLET
    {
        type            patch;
        nFaces          0;
        startFace       39360;
    }
    procBoundary33to21
    {
        type            processor;
        inGroups        1(processor);
        nFaces          400;
        startFace       39360;
        matchTolerance  0.0001;
        transform       unknown;
        myProcNo        33;
        neighbProcNo    21;
    }
    procBoundary33to34
    {
        type            processor;
        inGroups        1(processor);
        nFaces          400;
        startFace       39760;
        matchTolerance  0.0001;
        transform       unknown;
        myProcNo        33;
        neighbProcNo    34;
    }
)

// ************************************************************************* //
