/*--------------------------------*- C++ -*----------------------------------*\
| =========                 |                                                 |
| \\      /  F ield         | OpenFOAM: The Open Source CFD Toolbox           |
|  \\    /   O peration     | Version:  v1612+                                |
|   \\  /    A nd           | Web:      www.OpenFOAM.com                      |
|    \\/     M anipulation  |                                                 |
\*---------------------------------------------------------------------------*/
FoamFile
{
    version     2.0;
    format      ascii;
    class       polyBoundaryMesh;
    location    "constant/polyMesh";
    object      boundary;
}
// * * * * * * * * * * * * * * * * * * * * * * * * * * * * * * * * * * * * * //

5
(
    WALL
    {
        type            wall;
        inGroups        1(wall);
        nFaces          1494;
        startFace       37002;
    }
    INLET
    {
        type            patch;
        nFaces          0;
        startFace       38496;
    }
    OUTLET
    {
        type            patch;
        nFaces          0;
        startFace       38496;
    }
    procBoundary34to31
    {
        type            processor;
        inGroups        1(processor);
        nFaces          407;
        startFace       38496;
        matchTolerance  0.0001;
        transform       unknown;
        myProcNo        34;
        neighbProcNo    31;
    }
    procBoundary34to35
    {
        type            processor;
        inGroups        1(processor);
        nFaces          429;
        startFace       38903;
        matchTolerance  0.0001;
        transform       unknown;
        myProcNo        34;
        neighbProcNo    35;
    }
)

// ************************************************************************* //
