/*--------------------------------*- C++ -*----------------------------------*\
| =========                 |                                                 |
| \\      /  F ield         | OpenFOAM: The Open Source CFD Toolbox           |
|  \\    /   O peration     | Version:  v1612+                                |
|   \\  /    A nd           | Web:      www.OpenFOAM.com                      |
|    \\/     M anipulation  |                                                 |
\*---------------------------------------------------------------------------*/
FoamFile
{
    version     2.0;
    format      ascii;
    class       polyBoundaryMesh;
    location    "constant/polyMesh";
    object      boundary;
}
// * * * * * * * * * * * * * * * * * * * * * * * * * * * * * * * * * * * * * //

5
(
    WALL
    {
        type            wall;
        inGroups        1(wall);
        nFaces          1515;
        startFace       37372;
    }
    INLET
    {
        type            patch;
        nFaces          0;
        startFace       38887;
    }
    OUTLET
    {
        type            patch;
        nFaces          0;
        startFace       38887;
    }
    procBoundary29to9
    {
        type            processor;
        inGroups        1(processor);
        nFaces          397;
        startFace       38887;
        matchTolerance  0.0001;
        transform       unknown;
        myProcNo        29;
        neighbProcNo    9;
    }
    procBoundary29to30
    {
        type            processor;
        inGroups        1(processor);
        nFaces          394;
        startFace       39284;
        matchTolerance  0.0001;
        transform       unknown;
        myProcNo        29;
        neighbProcNo    30;
    }
)

// ************************************************************************* //
