/*--------------------------------*- C++ -*----------------------------------*\
| =========                 |                                                 |
| \\      /  F ield         | OpenFOAM: The Open Source CFD Toolbox           |
|  \\    /   O peration     | Version:  v1612+                                |
|   \\  /    A nd           | Web:      www.OpenFOAM.com                      |
|    \\/     M anipulation  |                                                 |
\*---------------------------------------------------------------------------*/
FoamFile
{
    version     2.0;
    format      ascii;
    class       polyBoundaryMesh;
    location    "constant/polyMesh";
    object      boundary;
}
// * * * * * * * * * * * * * * * * * * * * * * * * * * * * * * * * * * * * * //

4
(
    WALL
    {
        type            wall;
        inGroups        1(wall);
        nFaces          1501;
        startFace       37377;
    }
    INLET
    {
        type            patch;
        nFaces          413;
        startFace       38878;
    }
    OUTLET
    {
        type            patch;
        nFaces          0;
        startFace       39291;
    }
    procBoundary23to22
    {
        type            processor;
        inGroups        1(processor);
        nFaces          402;
        startFace       39291;
        matchTolerance  0.0001;
        transform       unknown;
        myProcNo        23;
        neighbProcNo    22;
    }
)

// ************************************************************************* //
