/*--------------------------------*- C++ -*----------------------------------*\
| =========                 |                                                 |
| \\      /  F ield         | OpenFOAM: The Open Source CFD Toolbox           |
|  \\    /   O peration     | Version:  v1612+                                |
|   \\  /    A nd           | Web:      www.OpenFOAM.com                      |
|    \\/     M anipulation  |                                                 |
\*---------------------------------------------------------------------------*/
FoamFile
{
    version     2.0;
    format      ascii;
    class       polyBoundaryMesh;
    location    "constant/polyMesh";
    object      boundary;
}
// * * * * * * * * * * * * * * * * * * * * * * * * * * * * * * * * * * * * * //

5
(
    WALL
    {
        type            wall;
        inGroups        1(wall);
        nFaces          1532;
        startFace       37890;
    }
    INLET
    {
        type            patch;
        nFaces          0;
        startFace       39422;
    }
    OUTLET
    {
        type            patch;
        nFaces          0;
        startFace       39422;
    }
    procBoundary14to13
    {
        type            processor;
        inGroups        1(processor);
        nFaces          414;
        startFace       39422;
        matchTolerance  0.0001;
        transform       unknown;
        myProcNo        14;
        neighbProcNo    13;
    }
    procBoundary14to15
    {
        type            processor;
        inGroups        1(processor);
        nFaces          408;
        startFace       39836;
        matchTolerance  0.0001;
        transform       unknown;
        myProcNo        14;
        neighbProcNo    15;
    }
)

// ************************************************************************* //
