/*--------------------------------*- C++ -*----------------------------------*\
| =========                 |                                                 |
| \\      /  F ield         | OpenFOAM: The Open Source CFD Toolbox           |
|  \\    /   O peration     | Version:  v1612+                                |
|   \\  /    A nd           | Web:      www.OpenFOAM.com                      |
|    \\/     M anipulation  |                                                 |
\*---------------------------------------------------------------------------*/
FoamFile
{
    version     2.0;
    format      ascii;
    class       polyBoundaryMesh;
    location    "constant/polyMesh";
    object      boundary;
}
// * * * * * * * * * * * * * * * * * * * * * * * * * * * * * * * * * * * * * //

5
(
    WALL
    {
        type            wall;
        inGroups        1(wall);
        nFaces          1546;
        startFace       46288;
    }
    INLET
    {
        type            patch;
        nFaces          0;
        startFace       47834;
    }
    OUTLET
    {
        type            patch;
        nFaces          0;
        startFace       47834;
    }
    procBoundary31to24
    {
        type            processor;
        inGroups        1(processor);
        nFaces          443;
        startFace       47834;
        matchTolerance  0.0001;
        transform       unknown;
        myProcNo        31;
        neighbProcNo    24;
    }
    procBoundary31to32
    {
        type            processor;
        inGroups        1(processor);
        nFaces          475;
        startFace       48277;
        matchTolerance  0.0001;
        transform       unknown;
        myProcNo        31;
        neighbProcNo    32;
    }
)

// ************************************************************************* //
