/*--------------------------------*- C++ -*----------------------------------*\
| =========                 |                                                 |
| \\      /  F ield         | OpenFOAM: The Open Source CFD Toolbox           |
|  \\    /   O peration     | Version:  v1612+                                |
|   \\  /    A nd           | Web:      www.OpenFOAM.com                      |
|    \\/     M anipulation  |                                                 |
\*---------------------------------------------------------------------------*/
FoamFile
{
    version     2.0;
    format      ascii;
    class       polyBoundaryMesh;
    location    "constant/polyMesh";
    object      boundary;
}
// * * * * * * * * * * * * * * * * * * * * * * * * * * * * * * * * * * * * * //

5
(
    WALL
    {
        type            wall;
        inGroups        1(wall);
        nFaces          1484;
        startFace       36764;
    }
    INLET
    {
        type            patch;
        nFaces          0;
        startFace       38248;
    }
    OUTLET
    {
        type            patch;
        nFaces          0;
        startFace       38248;
    }
    procBoundary12to11
    {
        type            processor;
        inGroups        1(processor);
        nFaces          396;
        startFace       38248;
        matchTolerance  0.0001;
        transform       unknown;
        myProcNo        12;
        neighbProcNo    11;
    }
    procBoundary12to26
    {
        type            processor;
        inGroups        1(processor);
        nFaces          420;
        startFace       38644;
        matchTolerance  0.0001;
        transform       unknown;
        myProcNo        12;
        neighbProcNo    26;
    }
)

// ************************************************************************* //
