/*--------------------------------*- C++ -*----------------------------------*\
| =========                 |                                                 |
| \\      /  F ield         | OpenFOAM: The Open Source CFD Toolbox           |
|  \\    /   O peration     | Version:  v1612+                                |
|   \\  /    A nd           | Web:      www.OpenFOAM.com                      |
|    \\/     M anipulation  |                                                 |
\*---------------------------------------------------------------------------*/
FoamFile
{
    version     2.0;
    format      ascii;
    class       polyBoundaryMesh;
    location    "constant/polyMesh";
    object      boundary;
}
// * * * * * * * * * * * * * * * * * * * * * * * * * * * * * * * * * * * * * //

5
(
    WALL
    {
        type            wall;
        inGroups        1(wall);
        nFaces          1505;
        startFace       37298;
    }
    INLET
    {
        type            patch;
        nFaces          0;
        startFace       38803;
    }
    OUTLET
    {
        type            patch;
        nFaces          0;
        startFace       38803;
    }
    procBoundary22to23
    {
        type            processor;
        inGroups        1(processor);
        nFaces          402;
        startFace       38803;
        matchTolerance  0.0001;
        transform       unknown;
        myProcNo        22;
        neighbProcNo    23;
    }
    procBoundary22to24
    {
        type            processor;
        inGroups        1(processor);
        nFaces          391;
        startFace       39205;
        matchTolerance  0.0001;
        transform       unknown;
        myProcNo        22;
        neighbProcNo    24;
    }
)

// ************************************************************************* //
