/*--------------------------------*- C++ -*----------------------------------*\
| =========                 |                                                 |
| \\      /  F ield         | OpenFOAM: The Open Source CFD Toolbox           |
|  \\    /   O peration     | Version:  v1612+                                |
|   \\  /    A nd           | Web:      www.OpenFOAM.com                      |
|    \\/     M anipulation  |                                                 |
\*---------------------------------------------------------------------------*/
FoamFile
{
    version     2.0;
    format      ascii;
    class       polyBoundaryMesh;
    location    "constant/polyMesh";
    object      boundary;
}
// * * * * * * * * * * * * * * * * * * * * * * * * * * * * * * * * * * * * * //

5
(
    WALL
    {
        type            wall;
        inGroups        1(wall);
        nFaces          1490;
        startFace       46036;
    }
    INLET
    {
        type            patch;
        nFaces          0;
        startFace       47526;
    }
    OUTLET
    {
        type            patch;
        nFaces          0;
        startFace       47526;
    }
    procBoundary13to14
    {
        type            processor;
        inGroups        1(processor);
        nFaces          474;
        startFace       47526;
        matchTolerance  0.0001;
        transform       unknown;
        myProcNo        13;
        neighbProcNo    14;
    }
    procBoundary13to15
    {
        type            processor;
        inGroups        1(processor);
        nFaces          508;
        startFace       48000;
        matchTolerance  0.0001;
        transform       unknown;
        myProcNo        13;
        neighbProcNo    15;
    }
)

// ************************************************************************* //
