/*--------------------------------*- C++ -*----------------------------------*\
| =========                 |                                                 |
| \\      /  F ield         | OpenFOAM: The Open Source CFD Toolbox           |
|  \\    /   O peration     | Version:  v1612+                                |
|   \\  /    A nd           | Web:      www.OpenFOAM.com                      |
|    \\/     M anipulation  |                                                 |
\*---------------------------------------------------------------------------*/
FoamFile
{
    version     2.0;
    format      ascii;
    class       polyBoundaryMesh;
    location    "constant/polyMesh";
    object      boundary;
}
// * * * * * * * * * * * * * * * * * * * * * * * * * * * * * * * * * * * * * //

5
(
    WALL
    {
        type            wall;
        inGroups        1(wall);
        nFaces          1492;
        startFace       46166;
    }
    INLET
    {
        type            patch;
        nFaces          0;
        startFace       47658;
    }
    OUTLET
    {
        type            patch;
        nFaces          0;
        startFace       47658;
    }
    procBoundary11to9
    {
        type            processor;
        inGroups        1(processor);
        nFaces          488;
        startFace       47658;
        matchTolerance  0.0001;
        transform       unknown;
        myProcNo        11;
        neighbProcNo    9;
    }
    procBoundary11to12
    {
        type            processor;
        inGroups        1(processor);
        nFaces          472;
        startFace       48146;
        matchTolerance  0.0001;
        transform       unknown;
        myProcNo        11;
        neighbProcNo    12;
    }
)

// ************************************************************************* //
