/*--------------------------------*- C++ -*----------------------------------*\
| =========                 |                                                 |
| \\      /  F ield         | OpenFOAM: The Open Source CFD Toolbox           |
|  \\    /   O peration     | Version:  v1612+                                |
|   \\  /    A nd           | Web:      www.OpenFOAM.com                      |
|    \\/     M anipulation  |                                                 |
\*---------------------------------------------------------------------------*/
FoamFile
{
    version     2.0;
    format      ascii;
    class       polyBoundaryMesh;
    location    "constant/polyMesh";
    object      boundary;
}
// * * * * * * * * * * * * * * * * * * * * * * * * * * * * * * * * * * * * * //

5
(
    WALL
    {
        type            wall;
        inGroups        1(wall);
        nFaces          1549;
        startFace       46467;
    }
    INLET
    {
        type            patch;
        nFaces          0;
        startFace       48016;
    }
    OUTLET
    {
        type            patch;
        nFaces          0;
        startFace       48016;
    }
    procBoundary25to22
    {
        type            processor;
        inGroups        1(processor);
        nFaces          469;
        startFace       48016;
        matchTolerance  0.0001;
        transform       unknown;
        myProcNo        25;
        neighbProcNo    22;
    }
    procBoundary25to26
    {
        type            processor;
        inGroups        1(processor);
        nFaces          470;
        startFace       48485;
        matchTolerance  0.0001;
        transform       unknown;
        myProcNo        25;
        neighbProcNo    26;
    }
)

// ************************************************************************* //
